{"primary_category_english": "Debt", "regular_ret_10y": "NA", "last_updated": "27-Mar-2021", "sub_category": "SDT_DB", "benchmark_ret_1y": "10.37", "primary_category_hindi": "\u0921\u0947\u092c\u094d\u091f", "primary_category": "SDT", "regular_nav": "1,181.1864", "direct_nav_prev": "1,194.6304", "regular_ret_3y": "NA", "regular_nav_prev": "1,180.4795", "aum": "28.07", "sub_category_hindi": "\u0921\u093e\u092f\u0928\u093e\u092e\u093f\u0915 \u092c\u0949\u0923\u094d\u0921", "id": "indiabulls-dynamic-bond-fund", "name_english": "indiabulls dynamic bond fund", "direct_ret_sl": "8.05", "regular_ret_5y": "NA", "regular_ret_1y": "6.36", "type": "1", "benchmark_ret_sl": "9.95", "benchmark_dir": "", "sub_category_english": "Dynamic Bond", "direct_ret_10y": "NA", "benchmark": "CRISIL Composite Bond Total Return Index", "direct_ret_5y": "NA", "name_hindi": "\u0907\u0902\u0921\u093f\u092f\u093e\u092c\u0941\u0932\u094d\u0938 \u0917\u0924\u093f\u0936\u0940\u0932 \u092c\u093e\u0902\u0921 \u092b\u0923\u094d\u0921", "name": "Indiabulls Dynamic Bond Fund", "benchmark_ret_10y": "NA", "direct_ret_3y": "NA", "benchmark_ret_3y": "NA", "direct_nav": "1,195.3626", "direct_ret_1y": "6.91", "benchmark_ret_5y": "NA", "regular_ret_sl": "7.49"}